*SPEF "ieee 1481-1999"
*DESIGN "wrapped_channel"
*DATE "11:11:11 Fri 11 11, 1111"
*VENDOR "OpenRCX"
*PROGRAM "Parallel Extraction"
*VERSION "1.0"
*DESIGN_FLOW "NAME_SCOPE LOCAL" "PIN_CAP NONE"
*DIVIDER /
*DELIMITER :
*BUS_DELIMITER []
*T_UNIT 1 NS
*C_UNIT 1 PF
*R_UNIT 1 OHM
*L_UNIT 1 HENRY

*NAME_MAP
*1 active
*2 io_in[0]
*3 io_in[10]
*4 io_in[11]
*5 io_in[12]
*6 io_in[13]
*7 io_in[14]
*8 io_in[15]
*9 io_in[16]
*10 io_in[17]
*11 io_in[18]
*12 io_in[19]
*13 io_in[1]
*14 io_in[20]
*15 io_in[21]
*16 io_in[22]
*17 io_in[23]
*18 io_in[24]
*19 io_in[25]
*20 io_in[26]
*21 io_in[27]
*22 io_in[28]
*23 io_in[29]
*24 io_in[2]
*25 io_in[30]
*26 io_in[31]
*27 io_in[32]
*28 io_in[33]
*29 io_in[34]
*30 io_in[35]
*31 io_in[36]
*32 io_in[37]
*33 io_in[3]
*34 io_in[4]
*35 io_in[5]
*36 io_in[6]
*37 io_in[7]
*38 io_in[8]
*39 io_in[9]
*40 io_oeb[0]
*41 io_oeb[10]
*42 io_oeb[11]
*43 io_oeb[12]
*44 io_oeb[13]
*45 io_oeb[14]
*46 io_oeb[15]
*47 io_oeb[16]
*48 io_oeb[17]
*49 io_oeb[18]
*50 io_oeb[19]
*51 io_oeb[1]
*52 io_oeb[20]
*53 io_oeb[21]
*54 io_oeb[22]
*55 io_oeb[23]
*56 io_oeb[24]
*57 io_oeb[25]
*58 io_oeb[26]
*59 io_oeb[27]
*60 io_oeb[28]
*61 io_oeb[29]
*62 io_oeb[2]
*63 io_oeb[30]
*64 io_oeb[31]
*65 io_oeb[32]
*66 io_oeb[33]
*67 io_oeb[34]
*68 io_oeb[35]
*69 io_oeb[36]
*70 io_oeb[37]
*71 io_oeb[3]
*72 io_oeb[4]
*73 io_oeb[5]
*74 io_oeb[6]
*75 io_oeb[7]
*76 io_oeb[8]
*77 io_oeb[9]
*78 io_out[0]
*79 io_out[10]
*80 io_out[11]
*81 io_out[12]
*82 io_out[13]
*83 io_out[14]
*84 io_out[15]
*85 io_out[16]
*86 io_out[17]
*87 io_out[18]
*88 io_out[19]
*89 io_out[1]
*90 io_out[20]
*91 io_out[21]
*92 io_out[22]
*93 io_out[23]
*94 io_out[24]
*95 io_out[25]
*96 io_out[26]
*97 io_out[27]
*98 io_out[28]
*99 io_out[29]
*100 io_out[2]
*101 io_out[30]
*102 io_out[31]
*103 io_out[32]
*104 io_out[33]
*105 io_out[34]
*106 io_out[35]
*107 io_out[36]
*108 io_out[37]
*109 io_out[3]
*110 io_out[4]
*111 io_out[5]
*112 io_out[6]
*113 io_out[7]
*114 io_out[8]
*115 io_out[9]
*116 la1_data_in[0]
*117 la1_data_in[10]
*118 la1_data_in[11]
*119 la1_data_in[12]
*120 la1_data_in[13]
*121 la1_data_in[14]
*122 la1_data_in[15]
*123 la1_data_in[16]
*124 la1_data_in[17]
*125 la1_data_in[18]
*126 la1_data_in[19]
*127 la1_data_in[1]
*128 la1_data_in[20]
*129 la1_data_in[21]
*130 la1_data_in[22]
*131 la1_data_in[23]
*132 la1_data_in[24]
*133 la1_data_in[25]
*134 la1_data_in[26]
*135 la1_data_in[27]
*136 la1_data_in[28]
*137 la1_data_in[29]
*138 la1_data_in[2]
*139 la1_data_in[30]
*140 la1_data_in[31]
*141 la1_data_in[3]
*142 la1_data_in[4]
*143 la1_data_in[5]
*144 la1_data_in[6]
*145 la1_data_in[7]
*146 la1_data_in[8]
*147 la1_data_in[9]
*148 la1_data_out[0]
*149 la1_data_out[10]
*150 la1_data_out[11]
*151 la1_data_out[12]
*152 la1_data_out[13]
*153 la1_data_out[14]
*154 la1_data_out[15]
*155 la1_data_out[16]
*156 la1_data_out[17]
*157 la1_data_out[18]
*158 la1_data_out[19]
*159 la1_data_out[1]
*160 la1_data_out[20]
*161 la1_data_out[21]
*162 la1_data_out[22]
*163 la1_data_out[23]
*164 la1_data_out[24]
*165 la1_data_out[25]
*166 la1_data_out[26]
*167 la1_data_out[27]
*168 la1_data_out[28]
*169 la1_data_out[29]
*170 la1_data_out[2]
*171 la1_data_out[30]
*172 la1_data_out[31]
*173 la1_data_out[3]
*174 la1_data_out[4]
*175 la1_data_out[5]
*176 la1_data_out[6]
*177 la1_data_out[7]
*178 la1_data_out[8]
*179 la1_data_out[9]
*180 la1_oenb[0]
*181 la1_oenb[10]
*182 la1_oenb[11]
*183 la1_oenb[12]
*184 la1_oenb[13]
*185 la1_oenb[14]
*186 la1_oenb[15]
*187 la1_oenb[16]
*188 la1_oenb[17]
*189 la1_oenb[18]
*190 la1_oenb[19]
*191 la1_oenb[1]
*192 la1_oenb[20]
*193 la1_oenb[21]
*194 la1_oenb[22]
*195 la1_oenb[23]
*196 la1_oenb[24]
*197 la1_oenb[25]
*198 la1_oenb[26]
*199 la1_oenb[27]
*200 la1_oenb[28]
*201 la1_oenb[29]
*202 la1_oenb[2]
*203 la1_oenb[30]
*204 la1_oenb[31]
*205 la1_oenb[3]
*206 la1_oenb[4]
*207 la1_oenb[5]
*208 la1_oenb[6]
*209 la1_oenb[7]
*210 la1_oenb[8]
*211 la1_oenb[9]
*214 wb_clk_i
*215 _0000_
*216 _0001_
*217 _0002_
*218 _0003_
*219 _0004_
*220 _0005_
*221 _0006_
*222 _0007_
*223 _0008_
*224 _0009_
*225 _0010_
*226 _0011_
*227 _0012_
*228 _0013_
*229 _0014_
*230 _0015_
*231 _0016_
*232 _0017_
*233 _0018_
*234 _0019_
*235 _0020_
*236 _0021_
*237 _0022_
*238 _0023_
*239 _0024_
*240 _0025_
*241 _0026_
*242 _0027_
*243 _0028_
*244 _0029_
*245 _0030_
*246 _0031_
*247 _0032_
*248 _0033_
*249 _0034_
*250 _0035_
*251 _0036_
*252 _0037_
*253 _0038_
*254 _0039_
*255 _0040_
*256 _0041_
*257 _0042_
*258 _0043_
*259 _0044_
*260 _0045_
*261 _0046_
*262 _0047_
*263 _0048_
*264 _0049_
*265 _0050_
*266 _0051_
*267 _0052_
*268 _0053_
*269 _0054_
*270 _0055_
*271 _0056_
*272 _0057_
*273 _0058_
*274 _0059_
*275 _0060_
*276 _0061_
*277 _0062_
*278 _0063_
*279 _0064_
*280 _0065_
*281 _0066_
*282 _0067_
*283 _0068_
*284 _0069_
*285 _0070_
*286 _0071_
*287 _0072_
*288 _0073_
*289 _0074_
*290 _0075_
*291 _0076_
*292 _0077_
*293 _0078_
*294 _0079_
*295 _0080_
*296 _0081_
*297 _0082_
*298 _0083_
*299 _0084_
*300 _0085_
*301 _0086_
*302 _0087_
*303 _0088_
*304 _0089_
*305 _0090_
*306 _0091_
*307 _0092_
*308 _0093_
*309 _0094_
*310 _0095_
*311 _0096_
*312 _0097_
*313 _0098_
*314 _0099_
*315 _0100_
*316 _0101_
*317 _0102_
*318 _0103_
*319 _0104_
*320 _0105_
*321 _0106_
*322 _0107_
*323 _0108_
*324 _0109_
*325 _0110_
*326 _0111_
*327 _0112_
*328 _0113_
*329 _0114_
*330 _0115_
*331 _0116_
*332 _0117_
*333 _0118_
*334 _0119_
*335 _0120_
*336 _0121_
*337 _0122_
*338 _0123_
*339 _0124_
*340 _0125_
*341 _0126_
*342 _0127_
*343 _0128_
*344 _0129_
*345 _0130_
*346 _0131_
*347 _0132_
*348 _0133_
*349 _0134_
*350 _0135_
*351 _0136_
*352 _0137_
*353 _0138_
*354 _0139_
*355 _0140_
*356 _0141_
*357 _0142_
*358 _0143_
*359 _0144_
*360 _0145_
*361 _0146_
*362 _0147_
*363 _0148_
*364 _0149_
*365 _0150_
*366 _0151_
*367 _0152_
*368 _0153_
*369 _0154_
*370 _0155_
*371 _0156_
*372 _0157_
*373 _0158_
*374 _0159_
*375 _0160_
*376 _0161_
*377 _0162_
*378 _0163_
*379 _0164_
*380 _0165_
*381 _0166_
*382 _0167_
*383 _0168_
*384 _0169_
*385 _0170_
*386 _0171_
*387 _0172_
*388 _0173_
*389 _0174_
*390 _0175_
*391 _0176_
*392 _0177_
*393 _0178_
*394 _0179_
*395 _0180_
*396 _0181_
*397 _0182_
*398 _0183_
*399 _0184_
*400 _0185_
*401 _0186_
*402 _0187_
*403 _0188_
*404 _0189_
*405 _0190_
*406 _0191_
*407 _0192_
*408 _0193_
*409 _0194_
*410 _0195_
*411 _0196_
*412 _0197_
*413 _0198_
*414 _0199_
*415 _0200_
*416 _0201_
*417 _0202_
*418 _0203_
*419 _0204_
*420 _0205_
*421 _0206_
*422 _0207_
*423 _0208_
*424 _0209_
*425 _0210_
*426 _0211_
*427 _0212_
*428 _0213_
*429 _0214_
*430 _0215_
*431 _0216_
*432 _0217_
*433 _0218_
*434 _0219_
*435 _0220_
*436 _0221_
*437 _0222_
*438 _0223_
*439 _0224_
*440 _0225_
*441 _0226_
*442 _0227_
*443 _0228_
*444 _0229_
*445 _0230_
*446 _0231_
*447 _0232_
*448 _0233_
*449 _0234_
*450 _0235_
*451 _0236_
*452 _0237_
*453 _0238_
*454 _0239_
*455 _0240_
*456 _0241_
*457 _0242_
*458 _0243_
*459 _0244_
*460 _0245_
*461 _0246_
*462 _0247_
*463 _0248_
*464 _0249_
*465 _0250_
*466 _0251_
*467 _0252_
*468 _0253_
*469 _0254_
*470 _0255_
*471 _0256_
*472 _0257_
*473 _0258_
*474 _0259_
*475 _0260_
*476 _0261_
*477 _0262_
*478 _0263_
*479 _0264_
*480 _0265_
*481 _0266_
*482 _0267_
*483 _0268_
*484 _0269_
*485 _0270_
*486 _0271_
*487 _0272_
*488 _0273_
*489 _0274_
*490 _0275_
*491 _0276_
*492 _0277_
*493 _0278_
*494 _0279_
*495 _0280_
*496 _0281_
*497 _0282_
*498 _0283_
*499 _0284_
*500 _0285_
*501 _0286_
*502 _0287_
*503 _0288_
*504 _0289_
*505 _0290_
*506 _0291_
*507 _0292_
*508 _0293_
*509 _0294_
*510 _0295_
*511 _0296_
*512 _0297_
*513 _0298_
*514 _0299_
*515 _0300_
*516 _0301_
*517 _0302_
*518 _0303_
*519 _0304_
*520 _0305_
*521 _0306_
*522 _0307_
*523 _0308_
*524 _0309_
*525 _0310_
*526 _0311_
*527 _0312_
*528 _0313_
*529 _0314_
*530 _0315_
*531 _0316_
*532 _0317_
*533 _0318_
*534 _0319_
*535 _0320_
*536 _0321_
*537 _0322_
*538 _0323_
*539 _0324_
*540 _0325_
*541 _0326_
*542 _0327_
*543 _0328_
*544 _0329_
*545 _0330_
*546 _0331_
*547 _0332_
*548 _0333_
*549 _0334_
*550 _0335_
*551 _0336_
*552 _0337_
*553 _0338_
*554 _0339_
*555 _0340_
*556 _0341_
*557 _0342_
*558 _0343_
*559 _0344_
*560 _0345_
*561 _0346_
*562 _0347_
*563 _0348_
*564 _0349_
*565 _0350_
*566 _0351_
*567 _0352_
*568 _0353_
*569 _0354_
*570 _0355_
*571 _0356_
*572 _0357_
*573 _0358_
*574 _0359_
*575 _0360_
*576 _0361_
*577 _0362_
*578 _0363_
*579 _0364_
*580 _0365_
*581 _0366_
*582 _0367_
*583 _0368_
*584 _0369_
*585 _0370_
*586 _0371_
*587 _0372_
*588 _0373_
*589 _0374_
*590 _0375_
*591 _0376_
*592 _0377_
*593 _0378_
*594 _0379_
*595 _0380_
*596 _0381_
*597 _0382_
*598 _0383_
*599 _0384_
*600 _0385_
*601 _0386_
*602 _0387_
*603 _0388_
*604 _0389_
*605 _0390_
*606 _0391_
*607 _0392_
*608 _0393_
*609 _0394_
*610 _0395_
*611 _0396_
*612 _0397_
*613 _0398_
*614 _0399_
*615 _0400_
*616 _0401_
*617 _0402_
*618 _0403_
*619 _0404_
*620 _0405_
*621 _0406_
*622 _0407_
*623 _0408_
*624 _0409_
*625 _0410_
*626 _0411_
*627 _0412_
*628 _0413_
*629 _0414_
*630 _0415_
*631 _0416_
*632 _0417_
*633 _0418_
*634 _0419_
*635 _0420_
*636 _0421_
*637 _0422_
*638 _0423_
*639 _0424_
*640 _0425_
*641 _0426_
*642 _0427_
*643 _0428_
*644 _0429_
*645 _0430_
*646 _0431_
*647 _0432_
*648 _0433_
*649 _0434_
*650 _0435_
*651 _0436_
*652 _0437_
*653 _0438_
*654 _0439_
*655 _0440_
*656 _0441_
*657 _0442_
*658 _0443_
*659 _0444_
*660 _0445_
*661 _0446_
*662 _0447_
*663 _0448_
*664 _0449_
*665 _0450_
*666 _0451_
*667 _0452_
*668 _0453_
*669 _0454_
*670 _0455_
*671 _0456_
*672 _0457_
*673 _0458_
*674 _0459_
*675 _0460_
*676 _0461_
*677 _0462_
*678 _0463_
*679 _0464_
*680 _0465_
*681 _0466_
*682 _0467_
*683 _0468_
*684 _0469_
*685 _0470_
*686 _0471_
*687 _0472_
*688 _0473_
*689 _0474_
*690 _0475_
*691 _0476_
*692 _0477_
*693 _0478_
*694 _0479_
*695 _0480_
*696 _0481_
*697 _0482_
*698 _0483_
*699 _0484_
*700 _0485_
*701 _0486_
*702 _0487_
*703 _0488_
*704 _0489_
*705 _0490_
*706 _0491_
*707 _0492_
*708 _0493_
*709 _0494_
*710 _0495_
*711 _0496_
*712 _0497_
*713 _0498_
*714 _0499_
*715 _0500_
*716 _0501_
*717 _0502_
*718 _0503_
*719 _0504_
*720 _0505_
*721 _0506_
*722 _0507_
*723 _0508_
*724 _0509_
*725 _0510_
*726 _0511_
*727 _0512_
*728 _0513_
*729 _0514_
*730 _0515_
*731 _0516_
*732 _0517_
*733 _0518_
*734 _0519_
*735 _0520_
*736 _0521_
*737 _0522_
*738 _0523_
*739 _0524_
*740 _0525_
*741 _0526_
*742 _0527_
*743 _0528_
*744 _0529_
*745 _0530_
*746 _0531_
*747 _0532_
*748 _0533_
*749 _0534_
*750 _0535_
*751 _0536_
*752 _0537_
*753 _0538_
*754 _0539_
*755 _0540_
*756 _0541_
*757 _0542_
*758 _0543_
*759 _0544_
*760 _0545_
*761 _0546_
*762 _0547_
*763 _0548_
*764 _0549_
*765 _0550_
*766 _0551_
*767 _0552_
*768 _0553_
*769 _0554_
*770 _0555_
*771 _0556_
*772 _0557_
*773 _0558_
*774 _0559_
*775 _0560_
*776 _0561_
*777 _0562_
*778 _0563_
*779 _0564_
*780 _0565_
*781 _0566_
*782 _0567_
*783 _0568_
*784 _0569_
*785 _0570_
*786 _0571_
*787 _0572_
*788 _0573_
*789 _0574_
*790 _0575_
*791 _0576_
*792 _0577_
*793 _0578_
*794 _0579_
*795 _0580_
*796 _0581_
*797 _0582_
*798 _0583_
*799 _0584_
*800 _0585_
*801 _0586_
*802 _0587_
*803 _0588_
*804 _0589_
*805 _0590_
*806 _0591_
*807 _0592_
*808 _0593_
*809 _0594_
*810 _0595_
*811 _0596_
*812 _0597_
*813 _0598_
*814 _0599_
*815 _0600_
*816 _0601_
*817 _0602_
*818 _0603_
*819 _0604_
*820 _0605_
*821 _0606_
*822 _0607_
*823 _0608_
*824 _0609_
*825 _0610_
*826 _0611_
*827 _0612_
*828 _0613_
*829 _0614_
*830 _0615_
*831 _0616_
*832 _0617_
*833 _0618_
*834 _0619_
*835 _0620_
*836 _0621_
*837 _0622_
*838 _0623_
*839 _0624_
*840 _0625_
*841 _0626_
*842 _0627_
*843 _0628_
*844 _0629_
*845 _0630_
*846 _0631_
*847 _0632_
*848 _0633_
*849 _0634_
*850 _0635_
*851 _0636_
*852 _0637_
*853 _0638_
*854 _0639_
*855 _0640_
*856 _0641_
*857 _0642_
*858 _0643_
*859 _0644_
*860 _0645_
*861 _0646_
*862 _0647_
*863 _0648_
*864 _0649_
*865 _0650_
*866 _0651_
*867 _0652_
*868 _0653_
*869 _0654_
*870 _0655_
*871 _0656_
*872 _0657_
*873 _0658_
*874 _0659_
*875 _0660_
*876 _0661_
*877 _0662_
*878 _0663_
*879 _0664_
*880 _0665_
*881 _0666_
*882 _0667_
*883 _0668_
*884 _0669_
*885 _0670_
*886 _0671_
*887 _0672_
*888 _0673_
*889 _0674_
*890 _0675_
*891 _0676_
*892 _0677_
*893 _0678_
*894 _0679_
*895 _0680_
*896 _0681_
*897 _0682_
*898 _0683_
*899 _0684_
*900 _0685_
*901 _0686_
*902 _0687_
*903 _0688_
*904 _0689_
*905 _0690_
*906 _0691_
*907 _0692_
*908 _0693_
*909 _0694_
*910 _0695_
*911 _0696_
*912 _0697_
*913 _0698_
*914 _0699_
*915 _0700_
*916 _0701_
*917 _0702_
*918 _0703_
*919 _0704_
*920 _0705_
*921 _0706_
*922 _0707_
*923 _0708_
*924 _0709_
*925 _0710_
*926 _0711_
*927 _0712_
*928 _0713_
*929 _0714_
*930 _0715_
*931 _0716_
*932 _0717_
*933 _0718_
*934 _0719_
*935 _0720_
*936 _0721_
*937 _0722_
*938 _0723_
*939 _0724_
*940 _0725_
*941 _0726_
*942 _0727_
*943 _0728_
*944 _0729_
*945 _0730_
*946 _0731_
*947 _0732_
*948 _0733_
*949 _0734_
*950 _0735_
*951 _0736_
*952 _0737_
*953 _0738_
*954 _0739_
*955 _0740_
*956 _0741_
*957 _0742_
*958 _0743_
*959 _0744_
*960 _0745_
*961 _0746_
*962 _0747_
*963 _0748_
*964 _0749_
*965 _0750_
*966 _0751_
*967 _0752_
*968 _0753_
*969 _0754_
*970 _0755_
*971 _0756_
*972 _0757_
*973 _0758_
*974 _0759_
*975 _0760_
*976 _0761_
*977 _0762_
*978 _0763_
*979 _0764_
*980 _0765_
*981 _0766_
*982 _0767_
*983 _0768_
*984 _0769_
*985 _0770_
*986 _0771_
*987 _0772_
*988 _0773_
*989 _0774_
*990 _0775_
*991 _0776_
*992 _0777_
*993 _0778_
*994 _0779_
*995 _0780_
*996 _0781_
*997 _0782_
*998 _0783_
*999 _0784_
*1000 _0785_
*1001 _0786_
*1002 _0787_
*1003 _0788_
*1004 _0789_
*1005 _0790_
*1006 _0791_
*1007 _0792_
*1008 _0793_
*1009 _0794_
*1010 _0795_
*1011 _0796_
*1012 _0797_
*1013 _0798_
*1014 _0799_
*1015 _0800_
*1016 _0801_
*1017 _0802_
*1018 _0803_
*1019 _0804_
*1020 _0805_
*1021 _0806_
*1022 _0807_
*1023 _0808_
*1024 _0809_
*1025 _0810_
*1026 _0811_
*1027 _0812_
*1028 _0813_
*1029 _0814_
*1030 _0815_
*1031 _0816_
*1032 _0817_
*1033 _0818_
*1034 _0819_
*1035 _0820_
*1036 _0821_
*1037 _0822_
*1038 _0823_
*1039 _0824_
*1040 _0825_
*1041 _0826_
*1042 _0827_
*1043 _0828_
*1044 _0829_
*1045 _0830_
*1046 _0831_
*1047 _0832_
*1048 _0833_
*1049 _0834_
*1050 _0835_
*1051 _0836_
*1052 _0837_
*1053 _0838_
*1054 _0839_
*1055 _0840_
*1056 _0841_
*1057 _0842_
*1058 _0843_
*1059 _0844_
*1060 _0845_
*1061 _0846_
*1062 _0847_
*1063 _0848_
*1064 _0849_
*1065 _0850_
*1066 _0851_
*1067 _0852_
*1068 _0853_
*1069 _0854_
*1070 _0855_
*1071 _0856_
*1072 _0857_
*1073 _0858_
*1074 clknet_0_wb_clk_i
*1075 clknet_4_0_0_wb_clk_i
*1076 clknet_4_10_0_wb_clk_i
*1077 clknet_4_11_0_wb_clk_i
*1078 clknet_4_12_0_wb_clk_i
*1079 clknet_4_13_0_wb_clk_i
*1080 clknet_4_14_0_wb_clk_i
*1081 clknet_4_15_0_wb_clk_i
*1082 clknet_4_1_0_wb_clk_i
*1083 clknet_4_2_0_wb_clk_i
*1084 clknet_4_3_0_wb_clk_i
*1085 clknet_4_4_0_wb_clk_i
*1086 clknet_4_5_0_wb_clk_i
*1087 clknet_4_6_0_wb_clk_i
*1088 clknet_4_7_0_wb_clk_i
*1089 clknet_4_8_0_wb_clk_i
*1090 clknet_4_9_0_wb_clk_i
*1091 gps_channel0\.ca_gen\.g1\[10\]
*1092 gps_channel0\.ca_gen\.g1\[1\]
*1093 gps_channel0\.ca_gen\.g1\[2\]
*1094 gps_channel0\.ca_gen\.g1\[3\]
*1095 gps_channel0\.ca_gen\.g1\[4\]
*1096 gps_channel0\.ca_gen\.g1\[5\]
*1097 gps_channel0\.ca_gen\.g1\[6\]
*1098 gps_channel0\.ca_gen\.g1\[7\]
*1099 gps_channel0\.ca_gen\.g1\[8\]
*1100 gps_channel0\.ca_gen\.g1\[9\]
*1101 gps_channel0\.ca_gen\.g2\[10\]
*1102 gps_channel0\.ca_gen\.g2\[1\]
*1103 gps_channel0\.ca_gen\.g2\[2\]
*1104 gps_channel0\.ca_gen\.g2\[3\]
*1105 gps_channel0\.ca_gen\.g2\[4\]
*1106 gps_channel0\.ca_gen\.g2\[5\]
*1107 gps_channel0\.ca_gen\.g2\[6\]
*1108 gps_channel0\.ca_gen\.g2\[7\]
*1109 gps_channel0\.ca_gen\.g2\[8\]
*1110 gps_channel0\.ca_gen\.g2\[9\]
*1111 gps_channel0\.ca_gen\.g2_init\[10\]
*1112 gps_channel0\.ca_gen\.g2_init\[1\]
*1113 gps_channel0\.ca_gen\.g2_init\[2\]
*1114 gps_channel0\.ca_gen\.g2_init\[3\]
*1115 gps_channel0\.ca_gen\.g2_init\[4\]
*1116 gps_channel0\.ca_gen\.g2_init\[5\]
*1117 gps_channel0\.ca_gen\.g2_init\[6\]
*1118 gps_channel0\.ca_gen\.g2_init\[7\]
*1119 gps_channel0\.ca_gen\.g2_init\[8\]
*1120 gps_channel0\.ca_gen\.g2_init\[9\]
*1121 gps_channel0\.ca_nco\.accumulator\[0\]
*1122 gps_channel0\.ca_nco\.accumulator\[10\]
*1123 gps_channel0\.ca_nco\.accumulator\[11\]
*1124 gps_channel0\.ca_nco\.accumulator\[12\]
*1125 gps_channel0\.ca_nco\.accumulator\[13\]
*1126 gps_channel0\.ca_nco\.accumulator\[14\]
*1127 gps_channel0\.ca_nco\.accumulator\[15\]
*1128 gps_channel0\.ca_nco\.accumulator\[16\]
*1129 gps_channel0\.ca_nco\.accumulator\[17\]
*1130 gps_channel0\.ca_nco\.accumulator\[18\]
*1131 gps_channel0\.ca_nco\.accumulator\[19\]
*1132 gps_channel0\.ca_nco\.accumulator\[1\]
*1133 gps_channel0\.ca_nco\.accumulator\[20\]
*1134 gps_channel0\.ca_nco\.accumulator\[21\]
*1135 gps_channel0\.ca_nco\.accumulator\[22\]
*1136 gps_channel0\.ca_nco\.accumulator\[23\]
*1137 gps_channel0\.ca_nco\.accumulator\[24\]
*1138 gps_channel0\.ca_nco\.accumulator\[25\]
*1139 gps_channel0\.ca_nco\.accumulator\[26\]
*1140 gps_channel0\.ca_nco\.accumulator\[27\]
*1141 gps_channel0\.ca_nco\.accumulator\[28\]
*1142 gps_channel0\.ca_nco\.accumulator\[29\]
*1143 gps_channel0\.ca_nco\.accumulator\[2\]
*1144 gps_channel0\.ca_nco\.accumulator\[30\]
*1145 gps_channel0\.ca_nco\.accumulator\[31\]
*1146 gps_channel0\.ca_nco\.accumulator\[3\]
*1147 gps_channel0\.ca_nco\.accumulator\[4\]
*1148 gps_channel0\.ca_nco\.accumulator\[5\]
*1149 gps_channel0\.ca_nco\.accumulator\[6\]
*1150 gps_channel0\.ca_nco\.accumulator\[7\]
*1151 gps_channel0\.ca_nco\.accumulator\[8\]
*1152 gps_channel0\.ca_nco\.accumulator\[9\]
*1153 gps_channel0\.ca_nco\.phase_in\[0\]
*1154 gps_channel0\.ca_nco\.phase_in\[10\]
*1155 gps_channel0\.ca_nco\.phase_in\[11\]
*1156 gps_channel0\.ca_nco\.phase_in\[12\]
*1157 gps_channel0\.ca_nco\.phase_in\[13\]
*1158 gps_channel0\.ca_nco\.phase_in\[14\]
*1159 gps_channel0\.ca_nco\.phase_in\[15\]
*1160 gps_channel0\.ca_nco\.phase_in\[1\]
*1161 gps_channel0\.ca_nco\.phase_in\[2\]
*1162 gps_channel0\.ca_nco\.phase_in\[3\]
*1163 gps_channel0\.ca_nco\.phase_in\[4\]
*1164 gps_channel0\.ca_nco\.phase_in\[5\]
*1165 gps_channel0\.ca_nco\.phase_in\[6\]
*1166 gps_channel0\.ca_nco\.phase_in\[7\]
*1167 gps_channel0\.ca_nco\.phase_in\[8\]
*1168 gps_channel0\.ca_nco\.phase_in\[9\]
*1169 gps_channel0\.ca_nco\.phase_sync
*1170 gps_channel0\.ca_nco\.step\[0\]
*1171 gps_channel0\.ca_nco\.step\[10\]
*1172 gps_channel0\.ca_nco\.step\[11\]
*1173 gps_channel0\.ca_nco\.step\[12\]
*1174 gps_channel0\.ca_nco\.step\[13\]
*1175 gps_channel0\.ca_nco\.step\[14\]
*1176 gps_channel0\.ca_nco\.step\[15\]
*1177 gps_channel0\.ca_nco\.step\[16\]
*1178 gps_channel0\.ca_nco\.step\[1\]
*1179 gps_channel0\.ca_nco\.step\[2\]
*1180 gps_channel0\.ca_nco\.step\[3\]
*1181 gps_channel0\.ca_nco\.step\[4\]
*1182 gps_channel0\.ca_nco\.step\[5\]
*1183 gps_channel0\.ca_nco\.step\[6\]
*1184 gps_channel0\.ca_nco\.step\[7\]
*1185 gps_channel0\.ca_nco\.step\[8\]
*1186 gps_channel0\.ca_nco\.step\[9\]
*1187 gps_channel0\.lo_i
*1188 gps_channel0\.lo_nco\.accumulator\[0\]
*1189 gps_channel0\.lo_nco\.accumulator\[10\]
*1190 gps_channel0\.lo_nco\.accumulator\[11\]
*1191 gps_channel0\.lo_nco\.accumulator\[12\]
*1192 gps_channel0\.lo_nco\.accumulator\[13\]
*1193 gps_channel0\.lo_nco\.accumulator\[14\]
*1194 gps_channel0\.lo_nco\.accumulator\[15\]
*1195 gps_channel0\.lo_nco\.accumulator\[16\]
*1196 gps_channel0\.lo_nco\.accumulator\[17\]
*1197 gps_channel0\.lo_nco\.accumulator\[18\]
*1198 gps_channel0\.lo_nco\.accumulator\[19\]
*1199 gps_channel0\.lo_nco\.accumulator\[1\]
*1200 gps_channel0\.lo_nco\.accumulator\[20\]
*1201 gps_channel0\.lo_nco\.accumulator\[21\]
*1202 gps_channel0\.lo_nco\.accumulator\[22\]
*1203 gps_channel0\.lo_nco\.accumulator\[23\]
*1204 gps_channel0\.lo_nco\.accumulator\[24\]
*1205 gps_channel0\.lo_nco\.accumulator\[25\]
*1206 gps_channel0\.lo_nco\.accumulator\[26\]
*1207 gps_channel0\.lo_nco\.accumulator\[27\]
*1208 gps_channel0\.lo_nco\.accumulator\[28\]
*1209 gps_channel0\.lo_nco\.accumulator\[29\]
*1210 gps_channel0\.lo_nco\.accumulator\[2\]
*1211 gps_channel0\.lo_nco\.accumulator\[30\]
*1212 gps_channel0\.lo_nco\.accumulator\[3\]
*1213 gps_channel0\.lo_nco\.accumulator\[4\]
*1214 gps_channel0\.lo_nco\.accumulator\[5\]
*1215 gps_channel0\.lo_nco\.accumulator\[6\]
*1216 gps_channel0\.lo_nco\.accumulator\[7\]
*1217 gps_channel0\.lo_nco\.accumulator\[8\]
*1218 gps_channel0\.lo_nco\.accumulator\[9\]
*1219 gps_channel0\.lo_nco\.phase_in\[0\]
*1220 gps_channel0\.lo_nco\.phase_in\[10\]
*1221 gps_channel0\.lo_nco\.phase_in\[11\]
*1222 gps_channel0\.lo_nco\.phase_in\[12\]
*1223 gps_channel0\.lo_nco\.phase_in\[13\]
*1224 gps_channel0\.lo_nco\.phase_in\[14\]
*1225 gps_channel0\.lo_nco\.phase_in\[15\]
*1226 gps_channel0\.lo_nco\.phase_in\[1\]
*1227 gps_channel0\.lo_nco\.phase_in\[2\]
*1228 gps_channel0\.lo_nco\.phase_in\[3\]
*1229 gps_channel0\.lo_nco\.phase_in\[4\]
*1230 gps_channel0\.lo_nco\.phase_in\[5\]
*1231 gps_channel0\.lo_nco\.phase_in\[6\]
*1232 gps_channel0\.lo_nco\.phase_in\[7\]
*1233 gps_channel0\.lo_nco\.phase_in\[8\]
*1234 gps_channel0\.lo_nco\.phase_in\[9\]
*1235 gps_channel0\.lo_nco\.phase_sync
*1236 gps_channel0\.lo_nco\.step\[0\]
*1237 gps_channel0\.lo_nco\.step\[10\]
*1238 gps_channel0\.lo_nco\.step\[11\]
*1239 gps_channel0\.lo_nco\.step\[12\]
*1240 gps_channel0\.lo_nco\.step\[13\]
*1241 gps_channel0\.lo_nco\.step\[14\]
*1242 gps_channel0\.lo_nco\.step\[15\]
*1243 gps_channel0\.lo_nco\.step\[16\]
*1244 gps_channel0\.lo_nco\.step\[1\]
*1245 gps_channel0\.lo_nco\.step\[2\]
*1246 gps_channel0\.lo_nco\.step\[3\]
*1247 gps_channel0\.lo_nco\.step\[4\]
*1248 gps_channel0\.lo_nco\.step\[5\]
*1249 gps_channel0\.lo_nco\.step\[6\]
*1250 gps_channel0\.lo_nco\.step\[7\]
*1251 gps_channel0\.lo_nco\.step\[8\]
*1252 gps_channel0\.lo_nco\.step\[9\]
*1253 gps_channel0\.prompt_i
*1254 gps_channel0\.prompt_q
*1255 net1
*1256 net10
*1257 net100
*1258 net101
*1259 net102
*1260 net103
*1261 net104
*1262 net105
*1263 net106
*1264 net107
*1265 net108
*1266 net109
*1267 net11
*1268 net110
*1269 net111
*1270 net112
*1271 net113
*1272 net114
*1273 net115
*1274 net116
*1275 net117
*1276 net118
*1277 net119
*1278 net12
*1279 net120
*1280 net121
*1281 net122
*1282 net13
*1283 net14
*1284 net15
*1285 net16
*1286 net17
*1287 net18
*1288 net19
*1289 net2
*1290 net20
*1291 net21
*1292 net22
*1293 net23
*1294 net24
*1295 net25
*1296 net26
*1297 net27
*1298 net28
*1299 net29
*1300 net3
*1301 net30
*1302 net31
*1303 net32
*1304 net33
*1305 net34
*1306 net35
*1307 net36
*1308 net37
*1309 net38
*1310 net39
*1311 net4
*1312 net40
*1313 net41
*1314 net42
*1315 net43
*1316 net44
*1317 net45
*1318 net46
*1319 net47
*1320 net48
*1321 net49
*1322 net5
*1323 net50
*1324 net51
*1325 net52
*1326 net53
*1327 net54
*1328 net55
*1329 net56
*1330 net57
*1331 net58
*1332 net59
*1333 net6
*1334 net60
*1335 net61
*1336 net62
*1337 net63
*1338 net64
*1339 net65
*1340 net66
*1341 net67
*1342 net68
*1343 net69
*1344 net7
*1345 net70
*1346 net71
*1347 net72
*1348 net73
*1349 net74
*1350 net75
*1351 net76
*1352 net77
*1353 net78
*1354 net79
*1355 net8
*1356 net80
*1357 net81
*1358 net82
*1359 net83
*1360 net84
*1361 net85
*1362 net86
*1363 net87
*1364 net88
*1365 net89
*1366 net9
*1367 net90
*1368 net91
*1369 net92
*1370 net93
*1371 net94
*1372 net95
*1373 net96
*1374 net97
*1375 net98
*1376 net99
*1377 FILLER_0_109
*1378 FILLER_0_113
*1379 FILLER_0_138
*1380 FILLER_0_141
*1381 FILLER_0_147
*1382 FILLER_0_159
*1383 FILLER_0_167
*1384 FILLER_0_169
*1385 FILLER_0_181
*1386 FILLER_0_193
*1387 FILLER_0_197
*1388 FILLER_0_220
*1389 FILLER_0_225
*1390 FILLER_0_237
*1391 FILLER_0_249
*1392 FILLER_0_253
*1393 FILLER_0_26
*1394 FILLER_0_261
*1395 FILLER_0_266
*1396 FILLER_0_278
*1397 FILLER_0_281
*1398 FILLER_0_29
*1399 FILLER_0_293
*1400 FILLER_0_3
*1401 FILLER_0_305
*1402 FILLER_0_309
*1403 FILLER_0_315
*1404 FILLER_0_327
*1405 FILLER_0_335
*1406 FILLER_0_337
*1407 FILLER_0_349
*1408 FILLER_0_361
*1409 FILLER_0_365
*1410 FILLER_0_377
*1411 FILLER_0_389
*1412 FILLER_0_393
*1413 FILLER_0_405
*1414 FILLER_0_413
*1415 FILLER_0_419
*1416 FILLER_0_421
*1417 FILLER_0_433
*1418 FILLER_0_445
*1419 FILLER_0_449
*1420 FILLER_0_474
*1421 FILLER_0_477
*1422 FILLER_0_502
*1423 FILLER_0_505
*1424 FILLER_0_510
*1425 FILLER_0_53
*1426 FILLER_0_57
*1427 FILLER_0_81
*1428 FILLER_0_85
*1429 FILLER_0_97
*1430 FILLER_10_109
*1431 FILLER_10_121
*1432 FILLER_10_133
*1433 FILLER_10_139
*1434 FILLER_10_141
*1435 FILLER_10_153
*1436 FILLER_10_165
*1437 FILLER_10_177
*1438 FILLER_10_189
*1439 FILLER_10_195
*1440 FILLER_10_197
*1441 FILLER_10_209
*1442 FILLER_10_221
*1443 FILLER_10_233
*1444 FILLER_10_245
*1445 FILLER_10_251
*1446 FILLER_10_253
*1447 FILLER_10_26
*1448 FILLER_10_265
*1449 FILLER_10_277
*1450 FILLER_10_289
*1451 FILLER_10_29
*1452 FILLER_10_3
*1453 FILLER_10_301
*1454 FILLER_10_307
*1455 FILLER_10_309
*1456 FILLER_10_321
*1457 FILLER_10_333
*1458 FILLER_10_345
*1459 FILLER_10_357
*1460 FILLER_10_363
*1461 FILLER_10_365
*1462 FILLER_10_377
*1463 FILLER_10_389
*1464 FILLER_10_401
*1465 FILLER_10_41
*1466 FILLER_10_413
*1467 FILLER_10_419
*1468 FILLER_10_421
*1469 FILLER_10_433
*1470 FILLER_10_445
*1471 FILLER_10_457
*1472 FILLER_10_469
*1473 FILLER_10_475
*1474 FILLER_10_477
*1475 FILLER_10_489
*1476 FILLER_10_501
*1477 FILLER_10_513
*1478 FILLER_10_53
*1479 FILLER_10_65
*1480 FILLER_10_77
*1481 FILLER_10_83
*1482 FILLER_10_85
*1483 FILLER_10_97
*1484 FILLER_11_105
*1485 FILLER_11_111
*1486 FILLER_11_113
*1487 FILLER_11_125
*1488 FILLER_11_137
*1489 FILLER_11_149
*1490 FILLER_11_15
*1491 FILLER_11_161
*1492 FILLER_11_167
*1493 FILLER_11_169
*1494 FILLER_11_181
*1495 FILLER_11_193
*1496 FILLER_11_205
*1497 FILLER_11_217
*1498 FILLER_11_223
*1499 FILLER_11_225
*1500 FILLER_11_237
*1501 FILLER_11_249
*1502 FILLER_11_261
*1503 FILLER_11_27
*1504 FILLER_11_273
*1505 FILLER_11_279
*1506 FILLER_11_281
*1507 FILLER_11_293
*1508 FILLER_11_3
*1509 FILLER_11_305
*1510 FILLER_11_317
*1511 FILLER_11_329
*1512 FILLER_11_335
*1513 FILLER_11_337
*1514 FILLER_11_349
*1515 FILLER_11_361
*1516 FILLER_11_373
*1517 FILLER_11_385
*1518 FILLER_11_39
*1519 FILLER_11_391
*1520 FILLER_11_393
*1521 FILLER_11_405
*1522 FILLER_11_417
*1523 FILLER_11_429
*1524 FILLER_11_441
*1525 FILLER_11_447
*1526 FILLER_11_449
*1527 FILLER_11_461
*1528 FILLER_11_473
*1529 FILLER_11_485
*1530 FILLER_11_497
*1531 FILLER_11_503
*1532 FILLER_11_505
*1533 FILLER_11_51
*1534 FILLER_11_514
*1535 FILLER_11_55
*1536 FILLER_11_57
*1537 FILLER_11_69
*1538 FILLER_11_81
*1539 FILLER_11_93
*1540 FILLER_12_109
*1541 FILLER_12_121
*1542 FILLER_12_133
*1543 FILLER_12_139
*1544 FILLER_12_14
*1545 FILLER_12_141
*1546 FILLER_12_153
*1547 FILLER_12_165
*1548 FILLER_12_177
*1549 FILLER_12_189
*1550 FILLER_12_195
*1551 FILLER_12_197
*1552 FILLER_12_209
*1553 FILLER_12_21
*1554 FILLER_12_221
*1555 FILLER_12_233
*1556 FILLER_12_245
*1557 FILLER_12_251
*1558 FILLER_12_253
*1559 FILLER_12_265
*1560 FILLER_12_27
*1561 FILLER_12_277
*1562 FILLER_12_289
*1563 FILLER_12_29
*1564 FILLER_12_3
*1565 FILLER_12_301
*1566 FILLER_12_307
*1567 FILLER_12_309
*1568 FILLER_12_321
*1569 FILLER_12_333
*1570 FILLER_12_345
*1571 FILLER_12_357
*1572 FILLER_12_363
*1573 FILLER_12_365
*1574 FILLER_12_377
*1575 FILLER_12_389
*1576 FILLER_12_401
*1577 FILLER_12_41
*1578 FILLER_12_413
*1579 FILLER_12_419
*1580 FILLER_12_421
*1581 FILLER_12_433
*1582 FILLER_12_445
*1583 FILLER_12_457
*1584 FILLER_12_469
*1585 FILLER_12_475
*1586 FILLER_12_477
*1587 FILLER_12_489
*1588 FILLER_12_501
*1589 FILLER_12_507
*1590 FILLER_12_514
*1591 FILLER_12_53
*1592 FILLER_12_65
*1593 FILLER_12_77
*1594 FILLER_12_83
*1595 FILLER_12_85
*1596 FILLER_12_97
*1597 FILLER_13_105
*1598 FILLER_13_111
*1599 FILLER_13_113
*1600 FILLER_13_125
*1601 FILLER_13_137
*1602 FILLER_13_149
*1603 FILLER_13_161
*1604 FILLER_13_167
*1605 FILLER_13_169
*1606 FILLER_13_181
*1607 FILLER_13_193
*1608 FILLER_13_205
*1609 FILLER_13_222
*1610 FILLER_13_225
*1611 FILLER_13_230
*1612 FILLER_13_241
*1613 FILLER_13_248
*1614 FILLER_13_260
*1615 FILLER_13_272
*1616 FILLER_13_281
*1617 FILLER_13_293
*1618 FILLER_13_3
*1619 FILLER_13_305
*1620 FILLER_13_31
*1621 FILLER_13_317
*1622 FILLER_13_329
*1623 FILLER_13_335
*1624 FILLER_13_337
*1625 FILLER_13_349
*1626 FILLER_13_361
*1627 FILLER_13_373
*1628 FILLER_13_385
*1629 FILLER_13_391
*1630 FILLER_13_393
*1631 FILLER_13_405
*1632 FILLER_13_417
*1633 FILLER_13_429
*1634 FILLER_13_43
*1635 FILLER_13_441
*1636 FILLER_13_447
*1637 FILLER_13_449
*1638 FILLER_13_461
*1639 FILLER_13_473
*1640 FILLER_13_485
*1641 FILLER_13_497
*1642 FILLER_13_503
*1643 FILLER_13_505
*1644 FILLER_13_513
*1645 FILLER_13_55
*1646 FILLER_13_57
*1647 FILLER_13_69
*1648 FILLER_13_81
*1649 FILLER_13_9
*1650 FILLER_13_93
*1651 FILLER_14_109
*1652 FILLER_14_121
*1653 FILLER_14_133
*1654 FILLER_14_139
*1655 FILLER_14_141
*1656 FILLER_14_153
*1657 FILLER_14_165
*1658 FILLER_14_177
*1659 FILLER_14_185
*1660 FILLER_14_194
*1661 FILLER_14_197
*1662 FILLER_14_203
*1663 FILLER_14_213
*1664 FILLER_14_226
*1665 FILLER_14_237
*1666 FILLER_14_248
*1667 FILLER_14_253
*1668 FILLER_14_259
*1669 FILLER_14_26
*1670 FILLER_14_271
*1671 FILLER_14_281
*1672 FILLER_14_29
*1673 FILLER_14_293
*1674 FILLER_14_3
*1675 FILLER_14_305
*1676 FILLER_14_309
*1677 FILLER_14_321
*1678 FILLER_14_333
*1679 FILLER_14_345
*1680 FILLER_14_357
*1681 FILLER_14_363
*1682 FILLER_14_365
*1683 FILLER_14_377
*1684 FILLER_14_389
*1685 FILLER_14_401
*1686 FILLER_14_41
*1687 FILLER_14_413
*1688 FILLER_14_419
*1689 FILLER_14_421
*1690 FILLER_14_433
*1691 FILLER_14_445
*1692 FILLER_14_457
*1693 FILLER_14_469
*1694 FILLER_14_475
*1695 FILLER_14_477
*1696 FILLER_14_489
*1697 FILLER_14_501
*1698 FILLER_14_513
*1699 FILLER_14_53
*1700 FILLER_14_65
*1701 FILLER_14_77
*1702 FILLER_14_83
*1703 FILLER_14_85
*1704 FILLER_14_97
*1705 FILLER_15_105
*1706 FILLER_15_111
*1707 FILLER_15_113
*1708 FILLER_15_125
*1709 FILLER_15_137
*1710 FILLER_15_14
*1711 FILLER_15_149
*1712 FILLER_15_161
*1713 FILLER_15_167
*1714 FILLER_15_169
*1715 FILLER_15_175
*1716 FILLER_15_192
*1717 FILLER_15_21
*1718 FILLER_15_212
*1719 FILLER_15_218
*1720 FILLER_15_222
*1721 FILLER_15_225
*1722 FILLER_15_235
*1723 FILLER_15_243
*1724 FILLER_15_250
*1725 FILLER_15_254
*1726 FILLER_15_271
*1727 FILLER_15_279
*1728 FILLER_15_281